
Note: No compatibility mode selected!


Circuit: ** sch_path: /foss/designs/thesis/workspace/thesis_hp/cace/_runs/run_2025-06-07_01-09-47/parameters/ac_params/run_107/foldedcascode-nmos-ac.sch

Doing analysis at TEMP = 130.000000 and TNOM = 27.000000

Using SPARSE 1.3 as Direct Linear Solver

No. of Data Rows : 1
Doing analysis at TEMP = 130.000000 and TNOM = 27.000000

Using SPARSE 1.3 as Direct Linear Solver
 Reference value :  8.14500e+02
No. of Data Rows : 708
acgain              =  9.957391e-01 at=  1.000000e+01
fbw                 =  3.438781e+06
Note: Simulation executed from .control section 
