
Note: No compatibility mode selected!


Circuit: ** sch_path: /foss/designs/thesis/workspace/thesis_hp/cace/_runs/run_2025-06-07_00-59-50/parameters/tran_params/run_095/foldedcascode-nmos-tran.sch

Doing analysis at TEMP = 27.000000 and TNOM = 27.000000

Using SPARSE 1.3 as Direct Linear Solver
Operating point simulation skipped by 'uic',
  now using transient initial conditions.
 Reference value :  1.39179e-08
 Reference value :  1.08392e-06
 Reference value :  2.01250e-06
 Reference value :  3.32250e-06
 Reference value :  4.62250e-06
 Reference value :  6.09250e-06
 Reference value :  7.35250e-06
 Reference value :  8.10250e-06
 Reference value :  9.05750e-06
 Reference value :  1.04525e-05
 Reference value :  1.18475e-05
 Reference value :  1.28625e-05
 Reference value :  1.37825e-05
 Reference value :  1.47825e-05
No. of Data Rows : 3025
tcross              =  1.363610e-06
Note: Simulation executed from .control section 
