
Note: No compatibility mode selected!


Circuit: ** sch_path: /foss/designs/thesis/workspace/thesis_hp/_runs/run_2025-06-06_14-57-06/parameters/tran_params/run_029/foldedcascode-nmos-tran.sch

Doing analysis at TEMP = -40.000000 and TNOM = 27.000000

Using SPARSE 1.3 as Direct Linear Solver
Operating point simulation skipped by 'uic',
  now using transient initial conditions.
 Reference value :  5.82172e-07
 Reference value :  1.65750e-06
 Reference value :  3.03250e-06
 Reference value :  4.69750e-06
 Reference value :  6.29250e-06
 Reference value :  8.53250e-06
 Reference value :  1.06875e-05
 Reference value :  1.29375e-05
 Reference value :  1.49625e-05
No. of Data Rows : 3025
tcross              =  1.288983e-06
Note: Simulation executed from .control section 
