
Note: No compatibility mode selected!


Circuit: ** sch_path: /foss/designs/thesis/workspace/thesis_hp/cace/_runs/run_2025-06-07_21-18-43/parameters/tran_params/run_075/foldedcascode-nmos-tran.sch

Doing analysis at TEMP = 130.000000 and TNOM = 27.000000

Using SPARSE 1.3 as Direct Linear Solver
Operating point simulation skipped by 'uic',
  now using transient initial conditions.
 Reference value :  9.46869e-08
 Reference value :  1.29250e-06
 Reference value :  2.39250e-06
 Reference value :  3.82250e-06
 Reference value :  5.13250e-06
 Reference value :  6.53750e-06
 Reference value :  7.90750e-06
 Reference value :  9.07250e-06
 Reference value :  1.04025e-05
 Reference value :  1.17625e-05
 Reference value :  1.29775e-05
 Reference value :  1.42275e-05
No. of Data Rows : 3025
tcross              =  1.352462e-06
Note: Simulation executed from .control section 
