
Note: No compatibility mode selected!


Circuit: ** sch_path: /foss/designs/thesis/workspace/thesis_hp/cace/_runs/run_2025-06-07_01-33-10/parameters/tran_params/run_088/foldedcascode-nmos-tran.sch

Doing analysis at TEMP = -40.000000 and TNOM = 27.000000

Using SPARSE 1.3 as Direct Linear Solver
Operating point simulation skipped by 'uic',
  now using transient initial conditions.
 Reference value :  8.80142e-07
 Reference value :  2.87250e-06
 Reference value :  5.15250e-06
 Reference value :  7.46250e-06
 Reference value :  9.79250e-06
 Reference value :  1.19075e-05
 Reference value :  1.41875e-05
No. of Data Rows : 3025
tcross              =  1.396726e-06
Note: Simulation executed from .control section 
