
Note: No compatibility mode selected!


Circuit: ** sch_path: /foss/designs/thesis/workspace/thesis_hp/_runs/run_2025-06-06_14-57-06/parameters/tran_params/run_118/foldedcascode-nmos-tran.sch

Doing analysis at TEMP = 27.000000 and TNOM = 27.000000

Using SPARSE 1.3 as Direct Linear Solver
Operating point simulation skipped by 'uic',
  now using transient initial conditions.
 Reference value :  4.44931e-07
 Reference value :  1.76250e-06
 Reference value :  3.78750e-06
 Reference value :  5.79750e-06
 Reference value :  7.71250e-06
 Reference value :  9.80750e-06
 Reference value :  1.17375e-05
 Reference value :  1.36175e-05
No. of Data Rows : 3027
tcross              =  1.282685e-06
Note: Simulation executed from .control section 
