
Note: No compatibility mode selected!


Circuit: ** sch_path: /foss/designs/thesis/workspace/thesis_hp/cace/_runs/run_2025-06-07_01-09-47/parameters/tran_params/run_111/foldedcascode-nmos-tran.sch

Doing analysis at TEMP = -40.000000 and TNOM = 27.000000

Using SPARSE 1.3 as Direct Linear Solver
Operating point simulation skipped by 'uic',
  now using transient initial conditions.
 Reference value :  1.05864e-06
 Reference value :  2.81223e-06
 Reference value :  4.87223e-06
 Reference value :  7.09223e-06
 Reference value :  9.53723e-06
 Reference value :  1.19172e-05
 Reference value :  1.36822e-05
No. of Data Rows : 3028
tcross              =  1.478043e-06
Note: Simulation executed from .control section 
