
Note: No compatibility mode selected!


Circuit: ** sch_path: /foss/designs/thesis/workspace/thesis_hp/_runs/run_2025-06-06_14-57-06/parameters/tran_params/run_079/foldedcascode-nmos-tran.sch

Doing analysis at TEMP = 130.000000 and TNOM = 27.000000

Using SPARSE 1.3 as Direct Linear Solver
Operating point simulation skipped by 'uic',
  now using transient initial conditions.
 Reference value :  2.49798e-07
 Reference value :  1.65250e-06
 Reference value :  3.56750e-06
 Reference value :  5.85250e-06
 Reference value :  7.76250e-06
 Reference value :  9.77750e-06
 Reference value :  1.18525e-05
 Reference value :  1.36825e-05
No. of Data Rows : 3025
tcross              =  1.295382e-06
Note: Simulation executed from .control section 
