
Note: No compatibility mode selected!


Circuit: ** sch_path: /foss/designs/thesis/workspace/thesis_hp/cace/_runs/run_2025-06-07_01-33-10/parameters/tran_params/run_108/foldedcascode-nmos-tran.sch

Doing analysis at TEMP = -40.000000 and TNOM = 27.000000

Using SPARSE 1.3 as Direct Linear Solver
Operating point simulation skipped by 'uic',
  now using transient initial conditions.
 Reference value :  8.74425e-07
 Reference value :  2.94822e-06
 Reference value :  5.19822e-06
 Reference value :  6.95322e-06
 Reference value :  8.94322e-06
 Reference value :  1.11032e-05
 Reference value :  1.30382e-05
 Reference value :  1.48732e-05
No. of Data Rows : 3027
tcross              =  1.330099e-06
Note: Simulation executed from .control section 
