
Note: No compatibility mode selected!


Circuit: ** sch_path: /foss/designs/thesis/workspace/thesis_hp/_runs/run_2025-06-06_14-57-06/parameters/tran_params/run_076/foldedcascode-nmos-tran.sch

Doing analysis at TEMP = 130.000000 and TNOM = 27.000000

Using SPARSE 1.3 as Direct Linear Solver
Operating point simulation skipped by 'uic',
  now using transient initial conditions.
 Reference value :  3.84608e-07
 Reference value :  2.21750e-06
 Reference value :  3.61750e-06
 Reference value :  5.58750e-06
 Reference value :  7.74250e-06
 Reference value :  9.78250e-06
 Reference value :  1.21125e-05
 Reference value :  1.42825e-05
No. of Data Rows : 3025
tcross              =  1.284223e-06
Note: Simulation executed from .control section 
