
Note: No compatibility mode selected!


Circuit: ** sch_path: /foss/designs/thesis/workspace/thesis_hp/cace/_runs/run_2025-06-07_00-59-50/parameters/tran_params/run_044/foldedcascode-nmos-tran.sch

Doing analysis at TEMP = 27.000000 and TNOM = 27.000000

Using SPARSE 1.3 as Direct Linear Solver
Operating point simulation skipped by 'uic',
  now using transient initial conditions.
 Reference value :  9.98198e-08
 Reference value :  1.30750e-06
 Reference value :  2.64250e-06
 Reference value :  4.04250e-06
 Reference value :  5.44750e-06
 Reference value :  6.85750e-06
 Reference value :  8.23250e-06
 Reference value :  9.47750e-06
 Reference value :  1.08725e-05
 Reference value :  1.23325e-05
 Reference value :  1.37525e-05
No. of Data Rows : 3025
tcross              =  1.379773e-06
Note: Simulation executed from .control section 
