
Note: No compatibility mode selected!


Circuit: ** sch_path: /foss/designs/thesis/workspace/thesis_hp/cace/_runs/run_2025-06-07_01-16-52/parameters/tran_params/run_022/foldedcascode-nmos-tran.sch

Doing analysis at TEMP = 130.000000 and TNOM = 27.000000

Using SPARSE 1.3 as Direct Linear Solver
Operating point simulation skipped by 'uic',
  now using transient initial conditions.
 Reference value :  5.07201e-07
 Reference value :  2.23750e-06
 Reference value :  4.10750e-06
 Reference value :  6.25250e-06
 Reference value :  8.27750e-06
 Reference value :  1.02375e-05
 Reference value :  1.24175e-05
 Reference value :  1.46675e-05
No. of Data Rows : 3024
tcross              =  1.437462e-06
Note: Simulation executed from .control section 
