
Note: No compatibility mode selected!


Circuit: ** sch_path: /foss/designs/thesis/workspace/thesis_hp/_runs/run_2025-06-06_14-57-06/parameters/tran_params/run_042/foldedcascode-nmos-tran.sch

Doing analysis at TEMP = 27.000000 and TNOM = 27.000000

Using SPARSE 1.3 as Direct Linear Solver
Operating point simulation skipped by 'uic',
  now using transient initial conditions.
 Reference value :  3.44988e-07
 Reference value :  2.46250e-06
 Reference value :  4.65750e-06
 Reference value :  6.77750e-06
 Reference value :  8.91250e-06
 Reference value :  1.10925e-05
 Reference value :  1.30075e-05
No. of Data Rows : 3029
tcross              =  1.315855e-06
Note: Simulation executed from .control section 
