
Note: No compatibility mode selected!


Circuit: ** sch_path: /foss/designs/thesis/workspace/thesis_hp/cace/_runs/run_2025-06-07_21-18-43/parameters/tran_params/run_081/foldedcascode-nmos-tran.sch

Doing analysis at TEMP = -40.000000 and TNOM = 27.000000

Using SPARSE 1.3 as Direct Linear Solver
Operating point simulation skipped by 'uic',
  now using transient initial conditions.
 Reference value :  1.24323e-07
 Reference value :  1.26750e-06
 Reference value :  2.52750e-06
 Reference value :  3.77250e-06
 Reference value :  4.93750e-06
 Reference value :  6.16750e-06
 Reference value :  7.48750e-06
 Reference value :  8.72250e-06
 Reference value :  1.00925e-05
 Reference value :  1.14925e-05
 Reference value :  1.28275e-05
 Reference value :  1.41575e-05
No. of Data Rows : 3026
tcross              =  1.343970e-06
Note: Simulation executed from .control section 
