
Note: No compatibility mode selected!


Circuit: ** sch_path: /foss/designs/thesis/workspace/thesis_hp/_runs/run_2025-06-06_14-57-06/parameters/tran_params/run_051/foldedcascode-nmos-tran.sch

Doing analysis at TEMP = 130.000000 and TNOM = 27.000000

Using SPARSE 1.3 as Direct Linear Solver
Operating point simulation skipped by 'uic',
  now using transient initial conditions.
 Reference value :  6.30348e-07
 Reference value :  2.53750e-06
 Reference value :  4.54750e-06
 Reference value :  6.25750e-06
 Reference value :  8.40750e-06
 Reference value :  1.05325e-05
 Reference value :  1.25675e-05
 Reference value :  1.44375e-05
No. of Data Rows : 3024
tcross              =  1.303484e-06
Note: Simulation executed from .control section 
