
Note: No compatibility mode selected!


Circuit: ** sch_path: /foss/designs/thesis/workspace/thesis_hp/cace/_runs/run_2025-06-07_21-18-43/parameters/tran_params/run_032/foldedcascode-nmos-tran.sch

Doing analysis at TEMP = -40.000000 and TNOM = 27.000000

Using SPARSE 1.3 as Direct Linear Solver
Operating point simulation skipped by 'uic',
  now using transient initial conditions.
 Reference value :  9.38025e-08
 Reference value :  1.16750e-06
 Reference value :  2.14750e-06
 Reference value :  3.38750e-06
 Reference value :  4.69750e-06
 Reference value :  5.95250e-06
 Reference value :  7.43250e-06
 Reference value :  8.83250e-06
 Reference value :  1.02425e-05
 Reference value :  1.16925e-05
 Reference value :  1.30625e-05
 Reference value :  1.43825e-05
No. of Data Rows : 3026
tcross              =  1.348949e-06
Note: Simulation executed from .control section 
