
Note: No compatibility mode selected!


Circuit: ** sch_path: /foss/designs/thesis/workspace/thesis_hp/cace/_runs/run_2025-06-07_00-59-50/parameters/tran_params/run_035/foldedcascode-nmos-tran.sch

Doing analysis at TEMP = -40.000000 and TNOM = 27.000000

Using SPARSE 1.3 as Direct Linear Solver
Operating point simulation skipped by 'uic',
  now using transient initial conditions.
 Reference value :  5.00000e-11
 Reference value :  7.35056e-07
 Reference value :  1.43250e-06
 Reference value :  2.71250e-06
 Reference value :  3.77250e-06
 Reference value :  4.95750e-06
 Reference value :  5.89250e-06
 Reference value :  7.17250e-06
 Reference value :  8.24250e-06
 Reference value :  8.96750e-06
 Reference value :  1.00225e-05
 Reference value :  1.09575e-05
 Reference value :  1.19925e-05
 Reference value :  1.29675e-05
 Reference value :  1.42925e-05
No. of Data Rows : 3025
tcross              =  1.374593e-06
Note: Simulation executed from .control section 
