
Note: No compatibility mode selected!


Circuit: ** sch_path: /foss/designs/thesis/workspace/thesis_hp/cace/_runs/run_2025-06-07_21-18-43/parameters/tran_params/run_039/foldedcascode-nmos-tran.sch

Doing analysis at TEMP = 27.000000 and TNOM = 27.000000

Using SPARSE 1.3 as Direct Linear Solver
Operating point simulation skipped by 'uic',
  now using transient initial conditions.
 Reference value :  5.00000e-11
 Reference value :  4.79536e-07
 Reference value :  1.16750e-06
 Reference value :  1.52024e-06
 Reference value :  2.24024e-06
 Reference value :  3.06524e-06
 Reference value :  4.06524e-06
 Reference value :  5.35524e-06
 Reference value :  6.66024e-06
 Reference value :  7.88024e-06
 Reference value :  8.95024e-06
 Reference value :  1.00702e-05
 Reference value :  1.13802e-05
 Reference value :  1.24952e-05
 Reference value :  1.35752e-05
 Reference value :  1.44402e-05
No. of Data Rows : 3027
tcross              =  1.363217e-06
Note: Simulation executed from .control section 
