
Note: No compatibility mode selected!


Circuit: ** sch_path: /foss/designs/thesis/workspace/thesis_hp/cace/_runs/run_2025-06-07_01-09-47/parameters/tran_params/run_094/foldedcascode-nmos-tran.sch

Doing analysis at TEMP = 27.000000 and TNOM = 27.000000

Using SPARSE 1.3 as Direct Linear Solver
Operating point simulation skipped by 'uic',
  now using transient initial conditions.
 Reference value :  1.06748e-06
 Reference value :  2.96250e-06
 Reference value :  5.01750e-06
 Reference value :  7.16750e-06
 Reference value :  9.51250e-06
 Reference value :  1.16775e-05
 Reference value :  1.38375e-05
No. of Data Rows : 3024
tcross              =  1.478563e-06
Note: Simulation executed from .control section 
