
Note: No compatibility mode selected!


Circuit: ** sch_path: /foss/designs/thesis/workspace/thesis_hp/cace/_runs/run_2025-06-07_01-33-10/parameters/tran_params/run_033/foldedcascode-nmos-tran.sch

Doing analysis at TEMP = -40.000000 and TNOM = 27.000000

Using SPARSE 1.3 as Direct Linear Solver
Operating point simulation skipped by 'uic',
  now using transient initial conditions.
 Reference value :  8.29981e-07
 Reference value :  2.84750e-06
 Reference value :  4.81750e-06
 Reference value :  7.03750e-06
 Reference value :  8.89250e-06
 Reference value :  1.08825e-05
 Reference value :  1.30325e-05
No. of Data Rows : 3029
tcross              =  1.388071e-06
Note: Simulation executed from .control section 
