
Note: No compatibility mode selected!


Circuit: ** sch_path: /foss/designs/thesis/workspace/thesis_hp/cace/_runs/run_2025-06-07_00-59-50/parameters/tran_params/run_082/foldedcascode-nmos-tran.sch

Doing analysis at TEMP = -40.000000 and TNOM = 27.000000

Using SPARSE 1.3 as Direct Linear Solver
Operating point simulation skipped by 'uic',
  now using transient initial conditions.
 Reference value :  2.08262e-07
 Reference value :  1.39750e-06
 Reference value :  2.81250e-06
 Reference value :  4.06750e-06
 Reference value :  5.46750e-06
 Reference value :  6.74250e-06
 Reference value :  7.78750e-06
 Reference value :  9.09750e-06
 Reference value :  1.02625e-05
 Reference value :  1.15925e-05
 Reference value :  1.28275e-05
 Reference value :  1.39475e-05
No. of Data Rows : 3026
tcross              =  1.338121e-06
Note: Simulation executed from .control section 
