
Note: No compatibility mode selected!


Circuit: ** sch_path: /foss/designs/thesis/workspace/thesis_hp/cace/_runs/run_2025-06-07_01-33-10/parameters/tran_params/run_076/foldedcascode-nmos-tran.sch

Doing analysis at TEMP = 130.000000 and TNOM = 27.000000

Using SPARSE 1.3 as Direct Linear Solver
Operating point simulation skipped by 'uic',
  now using transient initial conditions.
 Reference value :  6.39530e-07
 Reference value :  2.40750e-06
 Reference value :  4.35250e-06
 Reference value :  6.27250e-06
 Reference value :  8.34250e-06
 Reference value :  1.04875e-05
 Reference value :  1.23925e-05
 Reference value :  1.46025e-05
No. of Data Rows : 3025
tcross              =  1.347883e-06
Note: Simulation executed from .control section 
