
Note: No compatibility mode selected!


Circuit: ** sch_path: /foss/designs/thesis/workspace/thesis_hp/_runs/run_2025-06-06_14-57-06/parameters/tran_params/run_007/foldedcascode-nmos-tran.sch

Doing analysis at TEMP = -40.000000 and TNOM = 27.000000

Using SPARSE 1.3 as Direct Linear Solver
Operating point simulation skipped by 'uic',
  now using transient initial conditions.
 Reference value :  7.80326e-07
 Reference value :  2.35250e-06
 Reference value :  3.72250e-06
 Reference value :  4.90750e-06
 Reference value :  6.01250e-06
 Reference value :  7.22750e-06
 Reference value :  9.28750e-06
 Reference value :  1.11025e-05
 Reference value :  1.29725e-05
 Reference value :  1.48525e-05
No. of Data Rows : 3025
tcross              =  1.323848e-06
Note: Simulation executed from .control section 
