
Note: No compatibility mode selected!


Circuit: ** sch_path: /foss/designs/thesis/workspace/thesis_hp/cace/_runs/run_2025-06-07_00-59-50/parameters/tran_params/run_117/foldedcascode-nmos-tran.sch

Doing analysis at TEMP = 27.000000 and TNOM = 27.000000

Using SPARSE 1.3 as Direct Linear Solver
Operating point simulation skipped by 'uic',
  now using transient initial conditions.
 Reference value :  1.47974e-08
 Reference value :  1.12108e-06
 Reference value :  2.01750e-06
 Reference value :  3.37750e-06
 Reference value :  4.64250e-06
 Reference value :  5.74250e-06
 Reference value :  6.78750e-06
 Reference value :  7.91250e-06
 Reference value :  8.94250e-06
 Reference value :  1.02425e-05
 Reference value :  1.14625e-05
 Reference value :  1.25125e-05
 Reference value :  1.34425e-05
 Reference value :  1.44675e-05
No. of Data Rows : 3025
tcross              =  1.333122e-06
Note: Simulation executed from .control section 
