
Note: No compatibility mode selected!


Circuit: ** sch_path: /foss/designs/thesis/workspace/thesis_hp/_runs/run_2025-06-06_14-57-06/parameters/tran_params/run_041/foldedcascode-nmos-tran.sch

Doing analysis at TEMP = 27.000000 and TNOM = 27.000000

Using SPARSE 1.3 as Direct Linear Solver
Operating point simulation skipped by 'uic',
  now using transient initial conditions.
 Reference value :  6.14327e-07
 Reference value :  2.65750e-06
 Reference value :  4.80750e-06
 Reference value :  7.10750e-06
 Reference value :  9.14250e-06
 Reference value :  1.13825e-05
 Reference value :  1.36875e-05
No. of Data Rows : 3025
tcross              =  1.300474e-06
Note: Simulation executed from .control section 
