
Note: No compatibility mode selected!


Circuit: ** sch_path: /foss/designs/thesis/workspace/thesis_hp/cace/_runs/run_2025-06-07_01-09-47/parameters/tran_params/run_018/foldedcascode-nmos-tran.sch

Doing analysis at TEMP = 130.000000 and TNOM = 27.000000

Using SPARSE 1.3 as Direct Linear Solver
Operating point simulation skipped by 'uic',
  now using transient initial conditions.
 Reference value :  3.77167e-07
 Reference value :  2.19750e-06
 Reference value :  4.00750e-06
 Reference value :  6.26250e-06
 Reference value :  8.39750e-06
 Reference value :  1.01725e-05
 Reference value :  1.14875e-05
 Reference value :  1.27275e-05
 Reference value :  1.43575e-05
No. of Data Rows : 3024
tcross              =  1.447168e-06
Note: Simulation executed from .control section 
