
Note: No compatibility mode selected!


Circuit: ** sch_path: /foss/designs/thesis/workspace/thesis_hp/cace/_runs/run_2025-06-07_01-16-52/parameters/ac_mc_params/run_0/run_85/foldedcascode-nmos-ac.sch

Doing analysis at TEMP = 27.000000 and TNOM = 27.000000

Using SPARSE 1.3 as Direct Linear Solver
 Reference value :  0.00000e+00
No. of Data Rows : 1
Doing analysis at TEMP = 27.000000 and TNOM = 27.000000

Using SPARSE 1.3 as Direct Linear Solver
 Reference value :  3.75195e+07
No. of Data Rows : 708
acgain              =  2.702542e-03 at=  1.000000e+01
fbw                 =  2.929533e+04
Note: Simulation executed from .control section 
