
Note: No compatibility mode selected!


Circuit: ** sch_path: /foss/designs/thesis/workspace/thesis_hp/_runs/run_2025-06-06_14-57-06/parameters/noise_params/run_011/foldedcascode-nmos-noise.sch

Doing analysis at TEMP = 27.000000 and TNOM = 27.000000

Using SPARSE 1.3 as Direct Linear Solver
 Reference value :  1.20007e+06
No. of Data Rows : 506

No. of Data Rows : 1
Note: Simulation executed from .control section 
