
Note: No compatibility mode selected!


Circuit: ** sch_path: /foss/designs/thesis/workspace/thesis_hp/_runs/run_2025-06-06_14-57-06/parameters/tran_params/run_043/foldedcascode-nmos-tran.sch

Doing analysis at TEMP = 27.000000 and TNOM = 27.000000

Using SPARSE 1.3 as Direct Linear Solver
Operating point simulation skipped by 'uic',
  now using transient initial conditions.
 Reference value :  9.14881e-07
 Reference value :  2.80250e-06
 Reference value :  5.09250e-06
 Reference value :  7.21750e-06
 Reference value :  9.66750e-06
 Reference value :  1.19275e-05
 Reference value :  1.41425e-05
No. of Data Rows : 3026
tcross              =  1.313551e-06
Note: Simulation executed from .control section 
