
Note: No compatibility mode selected!


Circuit: ** sch_path: /foss/designs/thesis/workspace/thesis_hp/_runs/run_2025-06-06_14-57-06/parameters/tran_params/run_002/foldedcascode-nmos-tran.sch

Doing analysis at TEMP = -40.000000 and TNOM = 27.000000

Using SPARSE 1.3 as Direct Linear Solver
Operating point simulation skipped by 'uic',
  now using transient initial conditions.
 Reference value :  1.09707e-06
 Reference value :  3.03250e-06
 Reference value :  5.20250e-06
 Reference value :  7.42250e-06
 Reference value :  9.66750e-06
 Reference value :  1.19125e-05
 Reference value :  1.40225e-05
No. of Data Rows : 3026
tcross              =  1.293779e-06
Note: Simulation executed from .control section 
