
Note: No compatibility mode selected!


Circuit: ** sch_path: /foss/designs/thesis/workspace/thesis_hp/cace/_runs/run_2025-06-07_21-51-37/parameters/ac_mc_params/run_0/run_59/foldedcascode-nmos-ac.sch

Doing analysis at TEMP = 27.000000 and TNOM = 27.000000

Using SPARSE 1.3 as Direct Linear Solver

No. of Data Rows : 1
Doing analysis at TEMP = 27.000000 and TNOM = 27.000000

Using SPARSE 1.3 as Direct Linear Solver
 Reference value :  1.00000e+01
No. of Data Rows : 708
acgain              =  1.691349e-05 at=  9.774600e+01
 meas ac fbw when vmag(v_out)=1.195964e-05 fall=1 failed!

Note: Simulation executed from .control section 
