
Note: No compatibility mode selected!


Circuit: ** sch_path: /foss/designs/thesis/workspace/thesis_hp/cace/_runs/run_2025-06-07_15-33-58/parameters/tran_params/run_119/foldedcascode-nmos-tran.sch

Doing analysis at TEMP = 27.000000 and TNOM = 27.000000

Using SPARSE 1.3 as Direct Linear Solver
Operating point simulation skipped by 'uic',
  now using transient initial conditions.
 Reference value :  1.78135e-07
 Reference value :  1.10350e-06
 Reference value :  2.87750e-06
 Reference value :  4.94750e-06
 Reference value :  6.28250e-06
 Reference value :  7.48250e-06
 Reference value :  9.46250e-06
 Reference value :  1.13925e-05
 Reference value :  1.30375e-05
 Reference value :  1.49675e-05
No. of Data Rows : 3024
tcross              =  1.348033e-06
Note: Simulation executed from .control section 
