
Note: No compatibility mode selected!


Circuit: ** sch_path: /foss/designs/thesis/workspace/thesis_hp/cace/_runs/run_2025-06-07_01-35-42/parameters/tran_params/run_003/foldedcascode-nmos-tran.sch

Doing analysis at TEMP = -40.000000 and TNOM = 27.000000

Using SPARSE 1.3 as Direct Linear Solver
Operating point simulation skipped by 'uic',
  now using transient initial conditions.
 Reference value :  1.05416e-06
 Reference value :  2.74750e-06
 Reference value :  4.16250e-06
 Reference value :  5.81250e-06
 Reference value :  7.94250e-06
 Reference value :  9.47250e-06
 Reference value :  1.08775e-05
 Reference value :  1.28875e-05
 Reference value :  1.49425e-05
No. of Data Rows : 3026
tcross              =  1.377067e-06
Note: Simulation executed from .control section 
