
Note: No compatibility mode selected!


Circuit: ** sch_path: /foss/designs/thesis/workspace/thesis_hp/cace/_runs/run_2025-06-07_00-59-50/parameters/tran_params/run_050/foldedcascode-nmos-tran.sch

Doing analysis at TEMP = 130.000000 and TNOM = 27.000000

Using SPARSE 1.3 as Direct Linear Solver
Operating point simulation skipped by 'uic',
  now using transient initial conditions.
 Reference value :  1.49249e-07
 Reference value :  1.34250e-06
 Reference value :  2.55250e-06
 Reference value :  3.79750e-06
 Reference value :  5.16750e-06
 Reference value :  6.61750e-06
 Reference value :  8.04250e-06
 Reference value :  9.50750e-06
 Reference value :  1.09625e-05
 Reference value :  1.20975e-05
 Reference value :  1.31825e-05
 Reference value :  1.44525e-05
No. of Data Rows : 3025
tcross              =  1.345135e-06
Note: Simulation executed from .control section 
