
Note: No compatibility mode selected!


Circuit: ** sch_path: /foss/designs/thesis/workspace/thesis_hp/_runs/run_2025-06-06_14-57-06/parameters/tran_params/run_030/foldedcascode-nmos-tran.sch

Doing analysis at TEMP = -40.000000 and TNOM = 27.000000

Using SPARSE 1.3 as Direct Linear Solver
Operating point simulation skipped by 'uic',
  now using transient initial conditions.
 Reference value :  9.34856e-07
 Reference value :  3.02750e-06
 Reference value :  4.78750e-06
 Reference value :  6.14250e-06
 Reference value :  7.89750e-06
 Reference value :  9.98250e-06
 Reference value :  1.18675e-05
 Reference value :  1.36825e-05
No. of Data Rows : 3027
tcross              =  1.302750e-06
Note: Simulation executed from .control section 
