
Note: No compatibility mode selected!


Circuit: ** sch_path: /foss/designs/thesis/workspace/thesis_hp/_runs/run_2025-06-06_14-57-06/parameters/tran_params/run_027/foldedcascode-nmos-tran.sch

Doing analysis at TEMP = -40.000000 and TNOM = 27.000000

Using SPARSE 1.3 as Direct Linear Solver
Operating point simulation skipped by 'uic',
  now using transient initial conditions.
 Reference value :  9.56604e-07
 Reference value :  2.98250e-06
 Reference value :  5.24250e-06
 Reference value :  7.40250e-06
 Reference value :  9.19250e-06
 Reference value :  1.10225e-05
 Reference value :  1.28475e-05
 Reference value :  1.49075e-05
No. of Data Rows : 3025
tcross              =  1.290798e-06
Note: Simulation executed from .control section 
