
Note: No compatibility mode selected!


Circuit: ** sch_path: /foss/designs/thesis/workspace/thesis_hp/_runs/run_2025-06-06_14-57-06/parameters/tran_params/run_092/foldedcascode-nmos-tran.sch

Doing analysis at TEMP = 27.000000 and TNOM = 27.000000

Using SPARSE 1.3 as Direct Linear Solver
Operating point simulation skipped by 'uic',
  now using transient initial conditions.
 Reference value :  9.38921e-07
 Reference value :  3.13250e-06
 Reference value :  5.47250e-06
 Reference value :  7.95250e-06
 Reference value :  1.03275e-05
 Reference value :  1.26725e-05
 Reference value :  1.49125e-05
No. of Data Rows : 3025
tcross              =  1.287346e-06
Note: Simulation executed from .control section 
