
Note: No compatibility mode selected!


Circuit: ** sch_path: /foss/designs/thesis/workspace/thesis_hp/_runs/run_2025-06-06_14-57-06/parameters/tran_params/run_001/foldedcascode-nmos-tran.sch

Doing analysis at TEMP = -40.000000 and TNOM = 27.000000

Using SPARSE 1.3 as Direct Linear Solver
Operating point simulation skipped by 'uic',
  now using transient initial conditions.
 Reference value :  8.47169e-07
 Reference value :  2.61750e-06
 Reference value :  4.02250e-06
 Reference value :  6.12250e-06
 Reference value :  8.46750e-06
 Reference value :  1.04625e-05
 Reference value :  1.23375e-05
 Reference value :  1.44525e-05
No. of Data Rows : 3026
tcross              =  1.295361e-06
Note: Simulation executed from .control section 
