
Note: No compatibility mode selected!


Circuit: ** sch_path: /foss/designs/thesis/workspace/thesis_hp/cace/_runs/run_2025-06-07_21-18-43/parameters/tran_params/run_047/foldedcascode-nmos-tran.sch

Doing analysis at TEMP = 130.000000 and TNOM = 27.000000

Using SPARSE 1.3 as Direct Linear Solver
Operating point simulation skipped by 'uic',
  now using transient initial conditions.
 Reference value :  3.43365e-08
 Reference value :  1.11750e-06
 Reference value :  1.80750e-06
 Reference value :  2.53250e-06
 Reference value :  3.14250e-06
 Reference value :  4.20250e-06
 Reference value :  4.89750e-06
 Reference value :  6.14750e-06
 Reference value :  7.32250e-06
 Reference value :  8.40250e-06
 Reference value :  9.38750e-06
 Reference value :  1.05875e-05
 Reference value :  1.19675e-05
 Reference value :  1.29025e-05
 Reference value :  1.40875e-05
 Reference value :  1.47625e-05
No. of Data Rows : 3025
tcross              =  1.320794e-06
Note: Simulation executed from .control section 
