
Note: No compatibility mode selected!


Circuit: ** sch_path: /foss/designs/thesis/workspace/thesis_hp/_runs/run_2025-06-06_14-57-06/parameters/tran_params/run_005/foldedcascode-nmos-tran.sch

Doing analysis at TEMP = -40.000000 and TNOM = 27.000000

Using SPARSE 1.3 as Direct Linear Solver
Operating point simulation skipped by 'uic',
  now using transient initial conditions.
 Reference value :  8.04202e-07
 Reference value :  2.69750e-06
 Reference value :  4.97750e-06
 Reference value :  7.15750e-06
 Reference value :  9.36750e-06
 Reference value :  1.14975e-05
 Reference value :  1.36675e-05
No. of Data Rows : 3026
tcross              =  1.306229e-06
Note: Simulation executed from .control section 
