
Note: No compatibility mode selected!


Circuit: ** sch_path: /foss/designs/thesis/workspace/thesis_hp/cace/_runs/run_2025-06-07_21-18-43/parameters/tran_params/run_094/foldedcascode-nmos-tran.sch

Doing analysis at TEMP = 27.000000 and TNOM = 27.000000

Using SPARSE 1.3 as Direct Linear Solver
Operating point simulation skipped by 'uic',
  now using transient initial conditions.
 Reference value :  1.39707e-07
 Reference value :  1.25750e-06
 Reference value :  2.34250e-06
 Reference value :  3.75750e-06
 Reference value :  5.09750e-06
 Reference value :  6.49750e-06
 Reference value :  7.79250e-06
 Reference value :  8.94250e-06
 Reference value :  1.02125e-05
 Reference value :  1.14975e-05
 Reference value :  1.29225e-05
 Reference value :  1.44025e-05
No. of Data Rows : 3025
tcross              =  1.369606e-06
Note: Simulation executed from .control section 
