
Note: No compatibility mode selected!


Circuit: ** sch_path: /foss/designs/thesis/workspace/thesis_hp/cace/_runs/run_2025-06-07_00-59-50/parameters/tran_params/run_013/foldedcascode-nmos-tran.sch

Doing analysis at TEMP = 27.000000 and TNOM = 27.000000

Using SPARSE 1.3 as Direct Linear Solver
Operating point simulation skipped by 'uic',
  now using transient initial conditions.
 Reference value :  7.99709e-08
 Reference value :  1.25750e-06
 Reference value :  2.44750e-06
 Reference value :  3.49250e-06
 Reference value :  4.55750e-06
 Reference value :  5.92750e-06
 Reference value :  6.97750e-06
 Reference value :  8.12750e-06
 Reference value :  9.32250e-06
 Reference value :  1.03675e-05
 Reference value :  1.14175e-05
 Reference value :  1.25725e-05
 Reference value :  1.39375e-05
No. of Data Rows : 3028
tcross              =  1.372567e-06
Note: Simulation executed from .control section 
