
Note: No compatibility mode selected!


Circuit: ** sch_path: /foss/designs/thesis/workspace/thesis_hp/_runs/run_2025-06-06_14-57-06/parameters/tran_params/run_017/foldedcascode-nmos-tran.sch

Doing analysis at TEMP = 27.000000 and TNOM = 27.000000

Using SPARSE 1.3 as Direct Linear Solver
Operating point simulation skipped by 'uic',
  now using transient initial conditions.
 Reference value :  8.69909e-07
 Reference value :  2.63879e-06
 Reference value :  4.77879e-06
 Reference value :  7.10879e-06
 Reference value :  9.35879e-06
 Reference value :  1.14038e-05
 Reference value :  1.34338e-05
No. of Data Rows : 3028
tcross              =  1.319716e-06
Note: Simulation executed from .control section 
