
Note: No compatibility mode selected!


Circuit: ** sch_path: /foss/designs/thesis/workspace/thesis_hp/_runs/run_2025-06-06_14-57-06/parameters/tran_params/run_096/foldedcascode-nmos-tran.sch

Doing analysis at TEMP = 27.000000 and TNOM = 27.000000

Using SPARSE 1.3 as Direct Linear Solver
Operating point simulation skipped by 'uic',
  now using transient initial conditions.
 Reference value :  5.60455e-07
 Reference value :  2.52250e-06
 Reference value :  4.59750e-06
 Reference value :  6.82250e-06
 Reference value :  9.28750e-06
 Reference value :  1.15775e-05
 Reference value :  1.40475e-05
No. of Data Rows : 3024
tcross              =  1.318358e-06
Note: Simulation executed from .control section 
