
Note: No compatibility mode selected!


Circuit: ** sch_path: /foss/designs/thesis/workspace/thesis_hp/cace/_runs/run_2025-06-07_00-59-50/parameters/tran_params/run_067/foldedcascode-nmos-tran.sch

Doing analysis at TEMP = 27.000000 and TNOM = 27.000000

Using SPARSE 1.3 as Direct Linear Solver
Operating point simulation skipped by 'uic',
  now using transient initial conditions.
 Reference value :  1.29217e-07
 Reference value :  1.20000e-06
 Reference value :  1.90750e-06
 Reference value :  3.37250e-06
 Reference value :  4.75250e-06
 Reference value :  5.81250e-06
 Reference value :  6.97250e-06
 Reference value :  8.40750e-06
 Reference value :  9.87250e-06
 Reference value :  1.11175e-05
 Reference value :  1.23425e-05
 Reference value :  1.36625e-05
No. of Data Rows : 3025
tcross              =  1.363395e-06
Note: Simulation executed from .control section 
