
Note: No compatibility mode selected!


Circuit: ** sch_path: /foss/designs/thesis/workspace/thesis_hp/cace/_runs/run_2025-06-07_01-33-10/parameters/tran_params/run_037/foldedcascode-nmos-tran.sch

Doing analysis at TEMP = 27.000000 and TNOM = 27.000000

Using SPARSE 1.3 as Direct Linear Solver
Operating point simulation skipped by 'uic',
  now using transient initial conditions.
 Reference value :  4.58695e-07
 Reference value :  1.91750e-06
 Reference value :  4.09250e-06
 Reference value :  5.59250e-06
 Reference value :  7.68250e-06
 Reference value :  9.81250e-06
 Reference value :  1.17575e-05
 Reference value :  1.39275e-05
No. of Data Rows : 3025
tcross              =  1.332615e-06
Note: Simulation executed from .control section 
