
Note: No compatibility mode selected!


Circuit: ** sch_path: /foss/designs/thesis/workspace/thesis_hp/cace/_runs/run_2025-06-07_15-33-58/parameters/tran_params/run_016/foldedcascode-nmos-tran.sch

Doing analysis at TEMP = 27.000000 and TNOM = 27.000000

Using SPARSE 1.3 as Direct Linear Solver
Operating point simulation skipped by 'uic',
  now using transient initial conditions.
 Reference value :  8.06737e-07
 Reference value :  2.88732e-06
 Reference value :  4.94732e-06
 Reference value :  7.32732e-06
 Reference value :  9.58732e-06
 Reference value :  1.19073e-05
 Reference value :  1.42323e-05
No. of Data Rows : 3024
tcross              =  1.427440e-06
Note: Simulation executed from .control section 
