
Note: No compatibility mode selected!


Circuit: ** sch_path: /foss/designs/thesis/workspace/thesis_hp/cace/_runs/run_2025-06-07_21-23-55/parameters/ac_mc_params/run_0/run_97/foldedcascode-nmos-ac.sch

Doing analysis at TEMP = 27.000000 and TNOM = 27.000000

Using SPARSE 1.3 as Direct Linear Solver

No. of Data Rows : 1
Doing analysis at TEMP = 27.000000 and TNOM = 27.000000

Using SPARSE 1.3 as Direct Linear Solver
 Reference value :  2.72674e+02
No. of Data Rows : 708
acgain              =  9.275369e-01 at=  1.000000e+01
fbw                 =  7.579023e+06
Note: Simulation executed from .control section 
