
Note: No compatibility mode selected!


Circuit: ** sch_path: /foss/designs/thesis/workspace/thesis_hp/_runs/run_2025-06-06_14-57-06/parameters/tran_params/run_121/foldedcascode-nmos-tran.sch

Doing analysis at TEMP = 27.000000 and TNOM = 27.000000

Using SPARSE 1.3 as Direct Linear Solver
Operating point simulation skipped by 'uic',
  now using transient initial conditions.
 Reference value :  7.85089e-07
 Reference value :  2.26250e-06
 Reference value :  3.84750e-06
 Reference value :  5.55750e-06
 Reference value :  7.69750e-06
 Reference value :  9.73250e-06
 Reference value :  1.18075e-05
 Reference value :  1.40925e-05
No. of Data Rows : 3024
tcross              =  1.293736e-06
Note: Simulation executed from .control section 
