
Note: No compatibility mode selected!


Circuit: ** sch_path: /foss/designs/thesis/workspace/thesis_hp/cace/_runs/run_2025-06-07_21-23-55/parameters/ac_mc_params/run_0/run_10/foldedcascode-nmos-ac.sch

Doing analysis at TEMP = 27.000000 and TNOM = 27.000000

Using SPARSE 1.3 as Direct Linear Solver

No. of Data Rows : 1
Doing analysis at TEMP = 27.000000 and TNOM = 27.000000

Using SPARSE 1.3 as Direct Linear Solver
 Reference value :  1.93700e+02
No. of Data Rows : 708
acgain              =  9.790558e-01 at=  1.000000e+01
fbw                 =  1.582112e+07
Note: Simulation executed from .control section 
