
Note: No compatibility mode selected!


Circuit: ** sch_path: /foss/designs/thesis/workspace/thesis_hp/cace/_runs/run_2025-06-07_00-59-50/parameters/tran_params/run_099/foldedcascode-nmos-tran.sch

Doing analysis at TEMP = 130.000000 and TNOM = 27.000000

Using SPARSE 1.3 as Direct Linear Solver
Operating point simulation skipped by 'uic',
  now using transient initial conditions.
 Reference value :  3.93624e-08
 Reference value :  1.16750e-06
 Reference value :  2.44250e-06
 Reference value :  3.95250e-06
 Reference value :  5.12750e-06
 Reference value :  6.33250e-06
 Reference value :  7.74750e-06
 Reference value :  9.21750e-06
 Reference value :  1.06075e-05
 Reference value :  1.18775e-05
 Reference value :  1.30675e-05
 Reference value :  1.41825e-05
No. of Data Rows : 3025
tcross              =  1.323559e-06
Note: Simulation executed from .control section 
