
Note: No compatibility mode selected!


Circuit: ** sch_path: /foss/designs/thesis/workspace/thesis_hp/cace/_runs/run_2025-06-07_00-59-50/parameters/tran_params/run_085/foldedcascode-nmos-tran.sch

Doing analysis at TEMP = -40.000000 and TNOM = 27.000000

Using SPARSE 1.3 as Direct Linear Solver
Operating point simulation skipped by 'uic',
  now using transient initial conditions.
 Reference value :  2.54272e-07
 Reference value :  1.38750e-06
 Reference value :  2.74750e-06
 Reference value :  3.91250e-06
 Reference value :  4.98250e-06
 Reference value :  6.42250e-06
 Reference value :  7.83750e-06
 Reference value :  9.14250e-06
 Reference value :  1.06475e-05
 Reference value :  1.21425e-05
 Reference value :  1.35875e-05
No. of Data Rows : 3026
tcross              =  1.366366e-06
Note: Simulation executed from .control section 
