
Note: No compatibility mode selected!


Circuit: ** sch_path: /foss/designs/thesis/workspace/thesis_hp/_runs/run_2025-06-06_14-57-06/parameters/tran_params/run_052/foldedcascode-nmos-tran.sch

Doing analysis at TEMP = 130.000000 and TNOM = 27.000000

Using SPARSE 1.3 as Direct Linear Solver
Operating point simulation skipped by 'uic',
  now using transient initial conditions.
 Reference value :  5.69878e-07
 Reference value :  2.32750e-06
 Reference value :  4.62750e-06
 Reference value :  6.84250e-06
 Reference value :  8.97750e-06
 Reference value :  1.12525e-05
 Reference value :  1.34325e-05
No. of Data Rows : 3026
tcross              =  1.301979e-06
Note: Simulation executed from .control section 
