
Note: No compatibility mode selected!


Circuit: ** sch_path: /foss/designs/thesis/workspace/thesis_hp/cace/_runs/run_2025-06-07_01-16-52/parameters/ac_mc_params/run_0/run_53/foldedcascode-nmos-ac.sch

Doing analysis at TEMP = 27.000000 and TNOM = 27.000000

Using SPARSE 1.3 as Direct Linear Solver

No. of Data Rows : 1
Doing analysis at TEMP = 27.000000 and TNOM = 27.000000

Using SPARSE 1.3 as Direct Linear Solver
 Reference value :  4.71267e+03
No. of Data Rows : 708
acgain              =  7.102764e-02 at=  1.000000e+01
fbw                 =  3.956146e+05
Note: Simulation executed from .control section 
