
Note: No compatibility mode selected!


Circuit: ** sch_path: /foss/designs/thesis/workspace/thesis_hp/cace/_runs/run_2025-06-07_01-09-47/parameters/ac_params/run_014/foldedcascode-nmos-ac.sch

Doing analysis at TEMP = 130.000000 and TNOM = 27.000000

Using SPARSE 1.3 as Direct Linear Solver

No. of Data Rows : 1
Doing analysis at TEMP = 130.000000 and TNOM = 27.000000

Using SPARSE 1.3 as Direct Linear Solver
 Reference value :  2.66528e+03
No. of Data Rows : 708
acgain              =  9.948426e-01 at=  1.000000e+01
fbw                 =  3.223524e+06
Note: Simulation executed from .control section 
