
Note: No compatibility mode selected!


Circuit: ** sch_path: /foss/designs/thesis/workspace/thesis_hp/cace/_runs/run_2025-06-07_15-33-58/parameters/tran_params/run_080/foldedcascode-nmos-tran.sch

Doing analysis at TEMP = 130.000000 and TNOM = 27.000000

Using SPARSE 1.3 as Direct Linear Solver
Operating point simulation skipped by 'uic',
  now using transient initial conditions.
 Reference value :  9.14163e-07
 Reference value :  2.77250e-06
 Reference value :  5.02250e-06
 Reference value :  7.33250e-06
 Reference value :  9.78750e-06
 Reference value :  1.18125e-05
 Reference value :  1.38175e-05
No. of Data Rows : 3025
tcross              =  1.409567e-06
Note: Simulation executed from .control section 
