
Note: No compatibility mode selected!


Circuit: ** sch_path: /foss/designs/thesis/workspace/thesis_hp/cace/_runs/run_2025-06-07_21-23-55/parameters/ac_mc_params/run_0/run_36/foldedcascode-nmos-ac.sch

Doing analysis at TEMP = 27.000000 and TNOM = 27.000000

Using SPARSE 1.3 as Direct Linear Solver
 Reference value :  0.00000e+00
No. of Data Rows : 1
Doing analysis at TEMP = 27.000000 and TNOM = 27.000000

Using SPARSE 1.3 as Direct Linear Solver
 Reference value :  2.72674e+03
No. of Data Rows : 708
acgain              =  1.274356e-05 at=  9.774600e+01
 meas ac fbw when vmag(v_out)=9.011058e-06 fall=1 failed!

Note: Simulation executed from .control section 
