
Note: No compatibility mode selected!


Circuit: ** sch_path: /foss/designs/thesis/workspace/thesis_hp/cace/_runs/run_2025-06-07_21-18-43/parameters/tran_params/run_083/foldedcascode-nmos-tran.sch

Doing analysis at TEMP = -40.000000 and TNOM = 27.000000

Using SPARSE 1.3 as Direct Linear Solver
Operating point simulation skipped by 'uic',
  now using transient initial conditions.
 Reference value :  5.00000e-11
 Reference value :  1.10150e-06
 Reference value :  2.08750e-06
 Reference value :  3.41250e-06
 Reference value :  4.63250e-06
 Reference value :  5.88750e-06
 Reference value :  7.20750e-06
 Reference value :  8.65250e-06
 Reference value :  9.97250e-06
 Reference value :  1.12425e-05
 Reference value :  1.24625e-05
 Reference value :  1.37975e-05
 Reference value :  1.48475e-05
No. of Data Rows : 3025
tcross              =  1.332953e-06
Note: Simulation executed from .control section 
