
Note: No compatibility mode selected!


Circuit: ** sch_path: /foss/designs/thesis/workspace/thesis_hp/_runs/run_2025-06-06_14-57-06/parameters/tran_params/run_034/foldedcascode-nmos-tran.sch

Doing analysis at TEMP = -40.000000 and TNOM = 27.000000

Using SPARSE 1.3 as Direct Linear Solver
Operating point simulation skipped by 'uic',
  now using transient initial conditions.
 Reference value :  9.64964e-07
 Reference value :  2.81750e-06
 Reference value :  5.21750e-06
 Reference value :  7.46250e-06
 Reference value :  9.77250e-06
 Reference value :  1.20675e-05
 Reference value :  1.42475e-05
No. of Data Rows : 3029
tcross              =  1.313692e-06
Note: Simulation executed from .control section 
