
Note: No compatibility mode selected!


Circuit: ** sch_path: /foss/designs/thesis/workspace/thesis_hp/cace/_runs/run_2025-06-07_01-33-10/parameters/tran_params/run_121/foldedcascode-nmos-tran.sch

Doing analysis at TEMP = 27.000000 and TNOM = 27.000000

Using SPARSE 1.3 as Direct Linear Solver
Operating point simulation skipped by 'uic',
  now using transient initial conditions.
 Reference value :  8.55027e-07
 Reference value :  2.97250e-06
 Reference value :  5.11750e-06
 Reference value :  7.22250e-06
 Reference value :  8.92250e-06
 Reference value :  1.06625e-05
 Reference value :  1.27425e-05
 Reference value :  1.43475e-05
No. of Data Rows : 3024
tcross              =  1.354607e-06
Note: Simulation executed from .control section 
