
Note: No compatibility mode selected!


Circuit: ** sch_path: /foss/designs/thesis/workspace/thesis_hp/_runs/run_2025-06-06_14-57-06/parameters/tran_params/run_108/foldedcascode-nmos-tran.sch

Doing analysis at TEMP = -40.000000 and TNOM = 27.000000

Using SPARSE 1.3 as Direct Linear Solver
Operating point simulation skipped by 'uic',
  now using transient initial conditions.
 Reference value :  9.49732e-07
 Reference value :  2.94250e-06
 Reference value :  5.23750e-06
 Reference value :  7.28250e-06
 Reference value :  9.59250e-06
 Reference value :  1.19575e-05
 Reference value :  1.42375e-05
No. of Data Rows : 3026
tcross              =  1.283888e-06
Note: Simulation executed from .control section 
