
Note: No compatibility mode selected!


Circuit: ** sch_path: /foss/designs/thesis/workspace/thesis_hp/cace/_runs/run_2025-06-07_01-16-52/parameters/tran_params/run_038/foldedcascode-nmos-tran.sch

Doing analysis at TEMP = 27.000000 and TNOM = 27.000000

Using SPARSE 1.3 as Direct Linear Solver
Operating point simulation skipped by 'uic',
  now using transient initial conditions.
 Reference value :  5.54990e-07
 Reference value :  2.23250e-06
 Reference value :  4.44250e-06
 Reference value :  6.40250e-06
 Reference value :  8.69750e-06
 Reference value :  1.07275e-05
 Reference value :  1.28075e-05
 Reference value :  1.48275e-05
No. of Data Rows : 3029
tcross              =  1.362604e-06
Note: Simulation executed from .control section 
