
Note: No compatibility mode selected!


Circuit: ** sch_path: /foss/designs/thesis/workspace/thesis_hp/cace/_runs/run_2025-06-07_01-35-42/parameters/tran_params/run_082/foldedcascode-nmos-tran.sch

Doing analysis at TEMP = -40.000000 and TNOM = 27.000000

Using SPARSE 1.3 as Direct Linear Solver
Operating point simulation skipped by 'uic',
  now using transient initial conditions.
 Reference value :  7.33262e-07
 Reference value :  2.47750e-06
 Reference value :  4.71750e-06
 Reference value :  6.81750e-06
 Reference value :  8.95750e-06
 Reference value :  1.07075e-05
 Reference value :  1.28775e-05
 Reference value :  1.48825e-05
No. of Data Rows : 3026
tcross              =  1.338121e-06
Note: Simulation executed from .control section 
