
Note: No compatibility mode selected!


Circuit: ** sch_path: /foss/designs/thesis/workspace/thesis_hp/cace/_runs/run_2025-06-07_15-33-58/parameters/ac_mc_params/run_0/run_70/foldedcascode-nmos-ac.sch

Doing analysis at TEMP = 27.000000 and TNOM = 27.000000

Using SPARSE 1.3 as Direct Linear Solver

No. of Data Rows : 1
Doing analysis at TEMP = 27.000000 and TNOM = 27.000000

Using SPARSE 1.3 as Direct Linear Solver
 Reference value :  8.14500e+05
No. of Data Rows : 708
acgain              =  8.760517e-06 at=  9.774600e+01
 meas ac fbw when vmag(v_out)=6.194621e-06 fall=1 failed!

Note: Simulation executed from .control section 
