
Note: No compatibility mode selected!


Circuit: ** sch_path: /foss/designs/thesis/workspace/thesis_hp/_runs/run_2025-06-06_14-57-06/parameters/tran_params/run_124/foldedcascode-nmos-tran.sch

Doing analysis at TEMP = 27.000000 and TNOM = 27.000000

Using SPARSE 1.3 as Direct Linear Solver
Operating point simulation skipped by 'uic',
  now using transient initial conditions.
 Reference value :  8.90271e-07
 Reference value :  2.71250e-06
 Reference value :  5.04250e-06
 Reference value :  7.26250e-06
 Reference value :  9.44250e-06
 Reference value :  1.16825e-05
 Reference value :  1.36125e-05
No. of Data Rows : 3024
tcross              =  1.305658e-06
Note: Simulation executed from .control section 
