
Note: No compatibility mode selected!


Circuit: ** sch_path: /foss/designs/thesis/workspace/thesis_hp/cace/_runs/run_2025-06-07_21-18-43/parameters/tran_params/run_122/foldedcascode-nmos-tran.sch

Doing analysis at TEMP = 27.000000 and TNOM = 27.000000

Using SPARSE 1.3 as Direct Linear Solver
Operating point simulation skipped by 'uic',
  now using transient initial conditions.
 Reference value :  7.49451e-08
 Reference value :  1.21750e-06
 Reference value :  2.35750e-06
 Reference value :  3.63750e-06
 Reference value :  4.87750e-06
 Reference value :  6.14750e-06
 Reference value :  7.31250e-06
 Reference value :  8.53250e-06
 Reference value :  9.71250e-06
 Reference value :  1.10825e-05
 Reference value :  1.24875e-05
 Reference value :  1.37975e-05
No. of Data Rows : 3027
tcross              =  1.349915e-06
Note: Simulation executed from .control section 
