
Note: No compatibility mode selected!


Circuit: ** sch_path: /foss/designs/thesis/workspace/thesis_hp/_runs/run_2025-06-06_14-57-06/parameters/tran_params/run_102/foldedcascode-nmos-tran.sch

Doing analysis at TEMP = 130.000000 and TNOM = 27.000000

Using SPARSE 1.3 as Direct Linear Solver
Operating point simulation skipped by 'uic',
  now using transient initial conditions.
 Reference value :  3.99806e-07
 Reference value :  2.28750e-06
 Reference value :  4.46750e-06
 Reference value :  6.80750e-06
 Reference value :  8.76250e-06
 Reference value :  1.08875e-05
 Reference value :  1.30475e-05
 Reference value :  1.49525e-05
No. of Data Rows : 3025
tcross              =  1.277365e-06
Note: Simulation executed from .control section 
