
Note: No compatibility mode selected!


Circuit: ** sch_path: /foss/designs/thesis/workspace/thesis_hp/cace/_runs/run_2025-06-07_01-09-47/parameters/tran_params/run_030/foldedcascode-nmos-tran.sch

Doing analysis at TEMP = -40.000000 and TNOM = 27.000000

Using SPARSE 1.3 as Direct Linear Solver
Operating point simulation skipped by 'uic',
  now using transient initial conditions.
 Reference value :  8.39363e-07
 Reference value :  2.81750e-06
 Reference value :  5.11750e-06
 Reference value :  7.44750e-06
 Reference value :  9.70750e-06
 Reference value :  1.17875e-05
 Reference value :  1.37675e-05
No. of Data Rows : 3024
tcross              =  1.497917e-06
Note: Simulation executed from .control section 
