
Note: No compatibility mode selected!


Circuit: ** sch_path: /foss/designs/thesis/workspace/thesis_hp/cace/_runs/run_2025-06-07_15-33-58/parameters/ac_mc_params/run_0/run_7/foldedcascode-nmos-ac.sch

Doing analysis at TEMP = 27.000000 and TNOM = 27.000000

Using SPARSE 1.3 as Direct Linear Solver
 Reference value :  0.00000e+00
No. of Data Rows : 1
Doing analysis at TEMP = 27.000000 and TNOM = 27.000000

Using SPARSE 1.3 as Direct Linear Solver
 Reference value :  5.52808e+07
No. of Data Rows : 708
acgain              =  9.544316e-04 at=  1.000000e+01
 meas ac fbw when vmag(v_out)=6.748851e-04 fall=1 failed!

Note: Simulation executed from .control section 
