
Note: No compatibility mode selected!


Circuit: ** sch_path: /foss/designs/thesis/workspace/thesis_hp/cace/_runs/run_2025-06-07_01-09-47/parameters/tran_params/run_123/foldedcascode-nmos-tran.sch

Doing analysis at TEMP = 27.000000 and TNOM = 27.000000

Using SPARSE 1.3 as Direct Linear Solver
Operating point simulation skipped by 'uic',
  now using transient initial conditions.
 Reference value :  6.86596e-07
 Reference value :  2.35250e-06
 Reference value :  4.57250e-06
 Reference value :  6.52750e-06
 Reference value :  8.92250e-06
 Reference value :  1.13825e-05
 Reference value :  1.38475e-05
No. of Data Rows : 3024
tcross              =  1.496113e-06
Note: Simulation executed from .control section 
