
Note: No compatibility mode selected!


Circuit: ** sch_path: /foss/designs/thesis/workspace/thesis_hp/_runs/run_2025-06-06_14-57-06/parameters/tran_params/run_067/foldedcascode-nmos-tran.sch

Doing analysis at TEMP = 27.000000 and TNOM = 27.000000

Using SPARSE 1.3 as Direct Linear Solver
Operating point simulation skipped by 'uic',
  now using transient initial conditions.
 Reference value :  9.59406e-07
 Reference value :  2.92750e-06
 Reference value :  4.79250e-06
 Reference value :  6.91250e-06
 Reference value :  9.22750e-06
 Reference value :  1.12725e-05
 Reference value :  1.33125e-05
No. of Data Rows : 3025
tcross              =  1.301131e-06
Note: Simulation executed from .control section 
