
Note: No compatibility mode selected!


Circuit: ** sch_path: /foss/designs/thesis/workspace/thesis_hp/cace/_runs/run_2025-06-07_21-18-43/parameters/tran_params/run_074/foldedcascode-nmos-tran.sch

Doing analysis at TEMP = 130.000000 and TNOM = 27.000000

Using SPARSE 1.3 as Direct Linear Solver
Operating point simulation skipped by 'uic',
  now using transient initial conditions.
 Reference value :  6.91691e-08
 Reference value :  1.28750e-06
 Reference value :  2.54250e-06
 Reference value :  4.03250e-06
 Reference value :  5.28250e-06
 Reference value :  6.68750e-06
 Reference value :  8.04750e-06
 Reference value :  9.22750e-06
 Reference value :  1.06375e-05
 Reference value :  1.19525e-05
 Reference value :  1.31875e-05
 Reference value :  1.44625e-05
No. of Data Rows : 3025
tcross              =  1.318464e-06
Note: Simulation executed from .control section 
