
Note: No compatibility mode selected!


Circuit: ** sch_path: /foss/designs/thesis/workspace/thesis_hp/_runs/run_2025-06-06_14-57-06/parameters/tran_params/run_084/foldedcascode-nmos-tran.sch

Doing analysis at TEMP = -40.000000 and TNOM = 27.000000

Using SPARSE 1.3 as Direct Linear Solver
Operating point simulation skipped by 'uic',
  now using transient initial conditions.
 Reference value :  9.10079e-07
 Reference value :  2.71250e-06
 Reference value :  4.91750e-06
 Reference value :  7.09750e-06
 Reference value :  9.44750e-06
 Reference value :  1.17275e-05
 Reference value :  1.40225e-05
No. of Data Rows : 3025
tcross              =  1.304885e-06
Note: Simulation executed from .control section 
