
Note: No compatibility mode selected!


Circuit: ** sch_path: /foss/designs/thesis/workspace/thesis_hp/_runs/run_2025-06-06_14-57-06/parameters/ac_params/run_054/foldedcascode-nmos-ac.sch

Doing analysis at TEMP = -40.000000 and TNOM = 27.000000

Using SPARSE 1.3 as Direct Linear Solver

No. of Data Rows : 1
Doing analysis at TEMP = -40.000000 and TNOM = 27.000000

Using SPARSE 1.3 as Direct Linear Solver
 Reference value :  1.00000e+01
No. of Data Rows : 708
acgain              =  9.885649e-01 at=  1.000000e+01
fbw                 =  1.093398e+07
Note: Simulation executed from .control section 
