
Note: No compatibility mode selected!


Circuit: ** sch_path: /foss/designs/thesis/workspace/thesis_hp/cace/_runs/run_2025-06-07_01-33-10/parameters/tran_params/run_089/foldedcascode-nmos-tran.sch

Doing analysis at TEMP = -40.000000 and TNOM = 27.000000

Using SPARSE 1.3 as Direct Linear Solver
Operating point simulation skipped by 'uic',
  now using transient initial conditions.
 Reference value :  1.09979e-06
 Reference value :  2.78550e-06
 Reference value :  4.77550e-06
 Reference value :  7.20050e-06
 Reference value :  9.38050e-06
 Reference value :  1.14755e-05
 Reference value :  1.33505e-05
No. of Data Rows : 3028
tcross              =  1.388248e-06
Note: Simulation executed from .control section 
