
Note: No compatibility mode selected!


Circuit: ** sch_path: /foss/designs/thesis/workspace/thesis_hp/cace/_runs/run_2025-06-07_01-35-42/parameters/tran_params/run_007/foldedcascode-nmos-tran.sch

Doing analysis at TEMP = -40.000000 and TNOM = 27.000000

Using SPARSE 1.3 as Direct Linear Solver
Operating point simulation skipped by 'uic',
  now using transient initial conditions.
 Reference value :  1.05026e-06
 Reference value :  2.52750e-06
 Reference value :  3.76750e-06
 Reference value :  5.66750e-06
 Reference value :  7.20750e-06
 Reference value :  8.59250e-06
 Reference value :  1.02275e-05
 Reference value :  1.16325e-05
 Reference value :  1.36075e-05
No. of Data Rows : 3025
tcross              =  1.400388e-06
Note: Simulation executed from .control section 
