
Note: No compatibility mode selected!


Circuit: ** sch_path: /foss/designs/thesis/workspace/thesis_hp/cace/_runs/run_2025-06-07_15-33-58/parameters/ac_params/run_067/foldedcascode-nmos-ac.sch

Doing analysis at TEMP = 27.000000 and TNOM = 27.000000

Using SPARSE 1.3 as Direct Linear Solver

No. of Data Rows : 1
Doing analysis at TEMP = 27.000000 and TNOM = 27.000000

Using SPARSE 1.3 as Direct Linear Solver
 Reference value :  1.22775e+02
No. of Data Rows : 708
acgain              =  9.966410e-01 at=  1.000000e+01
fbw                 =  1.014801e+07
Note: Simulation executed from .control section 
