
Note: No compatibility mode selected!


Circuit: ** sch_path: /foss/designs/thesis/workspace/thesis_hp/cace/_runs/run_2025-06-07_01-16-52/parameters/noise_params/run_075/foldedcascode-nmos-noise.sch

Doing analysis at TEMP = 130.000000 and TNOM = 27.000000

Using SPARSE 1.3 as Direct Linear Solver
 Reference value :  2.78962e+05
No. of Data Rows : 506

No. of Data Rows : 1
Note: Simulation executed from .control section 
