
Note: No compatibility mode selected!


Circuit: ** sch_path: /foss/designs/thesis/workspace/thesis_hp/cace/_runs/run_2025-06-07_15-33-58/parameters/tran_params/run_098/foldedcascode-nmos-tran.sch

Doing analysis at TEMP = 27.000000 and TNOM = 27.000000

Using SPARSE 1.3 as Direct Linear Solver
Operating point simulation skipped by 'uic',
  now using transient initial conditions.
 Reference value :  5.55990e-07
 Reference value :  2.33195e-06
 Reference value :  4.60195e-06
 Reference value :  6.96695e-06
 Reference value :  9.23695e-06
 Reference value :  1.15619e-05
 Reference value :  1.39819e-05
No. of Data Rows : 3026
tcross              =  1.418739e-06
Note: Simulation executed from .control section 
