
Note: No compatibility mode selected!


Circuit: ** sch_path: /foss/designs/thesis/workspace/thesis_hp/cace/_runs/run_2025-06-07_21-18-43/parameters/tran_params/run_045/foldedcascode-nmos-tran.sch

Doing analysis at TEMP = 130.000000 and TNOM = 27.000000

Using SPARSE 1.3 as Direct Linear Solver
Operating point simulation skipped by 'uic',
  now using transient initial conditions.
 Reference value :  6.47176e-08
 Reference value :  1.20750e-06
 Reference value :  2.44250e-06
 Reference value :  3.88750e-06
 Reference value :  5.33250e-06
 Reference value :  6.76250e-06
 Reference value :  8.04250e-06
 Reference value :  9.33250e-06
 Reference value :  1.04575e-05
 Reference value :  1.18125e-05
 Reference value :  1.30225e-05
 Reference value :  1.43375e-05
No. of Data Rows : 3025
tcross              =  1.326736e-06
Note: Simulation executed from .control section 
